power-flow-agent/results/ieee14/2026-09-23/gpt-4o-mini/formulation_probe_cot__matched/traces/11_case14-multistep-002-s0.transcript.txt
==============================================================================
TRANSCRIPT  formulation_probe:cot  |  openrouter:openai/gpt-4o-mini  |  case14  |  case14-multistep-002-s0  run 0
==============================================================================
date: 2026-09-23   seed: 0   difficulty: multistep   tool variant: load_split

[system]   (hash 324529448686, from methods/formulation_probe_cot/method.json prompt_files)
You are a power system analysis expert. In this task you do not compute anything. Read the request and the system data and declare how the request is formulated as solver operations: the ordered list of operations a solver-based assistant would run to answer it, using only the operation names and argument names given under "## Formulation" in the user message.

Important Constraints:

- You must strictly output JSON (no extra text, no Markdown blocks) of the form {"formulation": [{"tool": "<name>", "args": {...}}, ...]}.

- Copy identifiers and values from the request; do not add arguments the request does not give. Bus and line identifiers in the request are MATPOWER 1-based ids; pass them to the tools as given, unless the request itself states a different indexing convention for that identifier (e.g. "(0-based)"), in which case convert it to the MATPOWER 1-based id.

- Do not compute or report any voltage, power, or loading value.

Reasoning mode: you MAY write a short step-by-step reasoning in plain text before the answer. The final JSON object must be the LAST thing in the response, inside a single ```json fenced block, and it must be the only JSON object in the response. Do not use curly braces in the reasoning text.

[user]   (complete message, stored at run time)
System base: 100 MVA. Every per-unit quantity below (r_pu, x_pu, b_pu) is defined on this base. Line and transformer impedances (r_pu, x_pu, b_pu) are already in per unit on this base, not ohms per km; do not convert them further. Branch thermal ratings are not defined for this case, so branch loading is undefined: report loading_percent as 0 for every branch.

You are a power systems expert. Based on the following IEEE case14 test system data, calculate the AC power flow results.

## System Data (from pandapower network tables)

### Node Data (Bus Table: net.bus)

   name type zone  in_service
0     1    b  1.0        True
1     2    b  1.0        True
2     3    b  1.0        True
3     4    b  1.0        True
4     5    b  1.0        True
5     6    b  1.0        True
6     7    b  1.0        True
7     8    b  1.0        True
8     9    b  1.0        True
9    10    b  1.0        True
10   11    b  1.0        True
11   12    b  1.0        True
12   13    b  1.0        True
13   14    b  1.0        True

### Load Data (Load Table: net.load)

    bus       p_mw     q_mvar  in_service
0     2  23.703407  13.872501        True
1     3  91.258175  18.406638        True
2     4  46.153919  -3.765696        True
3     5   7.407543   1.559483        True
4     6  11.840525   7.928923        True
5     9  31.173883  17.541914        True
6    10   9.282646   5.982150        True
7    11   3.570049   1.836025        True
8    12   5.630025   1.476728        True
9    13  12.570953   5.400854        True
10   14  15.310524   5.137760        True

### Generator Data (Generator Table: net.gen)

   bus       p_mw  vm_pu  min_p_mw  max_p_mw  min_q_mvar  max_q_mvar  in_service
0    2  36.683482  1.045       0.0     140.0       -40.0        50.0        True
1    3   0.000000  1.010       0.0     100.0         0.0        40.0        True
2    6   0.000000  1.070       0.0     100.0        -6.0        24.0        True
3    8   0.000000  1.090       0.0     100.0        -6.0        24.0        True

### Balanced Node/External Grid (External Grid Table: net.ext_grid)

   bus  vm_pu  va_degree  in_service
0    1   1.06        0.0        True

### Line Data (Line Table: net.line)

    from_bus  to_bus     r_pu     x_pu    b_pu  parallel  in_service
0          1       2  0.01938  0.05917  0.0528         1        True
1          1       5  0.05403  0.22304  0.0492         1        True
2          2       3  0.04699  0.19797  0.0438         1        True
3          2       4  0.05811  0.17632  0.0340         1        True
4          2       5  0.05695  0.17388  0.0346         1        True
5          3       4  0.06701  0.17103  0.0128         1        True
6          4       5  0.01335  0.04211  0.0000         1        True
7          6      11  0.09498  0.19890  0.0000         1        True
8          6      12  0.12291  0.25581  0.0000         1        True
9          6      13  0.06615  0.13027  0.0000         1        True
10         9      10  0.03181  0.08450  0.0000         1        True
11         9      14  0.12711  0.27038  0.0000         1        True
12        10      11  0.08205  0.19207  0.0000         1        True
13        12      13  0.22092  0.19988  0.0000         1        True
14        13      14  0.17093  0.34802  0.0000         1        True

### Transformer Data (Transformer Table: net.trafo)

   hv_bus  lv_bus  r_pu     x_pu  shift_degree tap_side  tap_neutral  tap_min  tap_max  tap_step_percent  in_service
0       4       7   0.0  0.20912           0.0       hv          0.0      NaN      NaN               2.2        True
1       4       9   0.0  0.55618           0.0       hv          0.0      NaN      NaN               3.1        True
2       5       6   0.0  0.25202           0.0       hv          0.0      NaN      NaN               6.8        True
3       7       8   0.0  0.17615           0.0     None          NaN      NaN      NaN               NaN        True
4       7       9   0.0  0.11001           0.0     None          NaN      NaN      NaN               NaN        True

## Task
Load the 14-bus test case (case14), disconnect the line between bus 6 and bus 13, disconnect the line between bus 12 and bus 13, and finally rerun the power flow, then list every line whose loading is above 100%.

## Reasoning Instructions
Before producing the final JSON, reason step by step:
1. Which buses does the request refer to (display ids, slack bus, load and generator buses)?
2. Which lines/branches are involved (from_bus-to_bus, line_id convention)?
3. Which quantities and units are asked for (MW, Mvar, p.u., degrees, % loading)?
4. What changes with respect to the base case, and which power balance must hold?
Write the reasoning first, then the final JSON as the last part of the response.

## Formulation
Declare the ordered solver operations the request needs, one object per operation, in execution order, using only these operations and argument names (* = required). The case tables above are the network the request refers to.

Available operations:
- load_case(case_name: string in {case14, case30, case57, case118, case300}*): Load IEEE test case.
- run_powerflow((none)): Run power flow on current case.
- disconnect_line(from_bus: integer*, to_bus: integer*): Disconnect line/branch between two buses and recompute.
- reconnect_line(from_bus: integer*, to_bus: integer*): Reconnect line/branch between two buses and recompute.
- get_most_loaded_branch((none)): Get most loaded branch.
- run_n1_contingency(top_k: integer, criteria: string in {max_violations, max_overload, min_voltage}, max_candidates: integer): Run N-1 contingency analysis.
- recommend_remedial_actions(max_actions: integer, allow_load_shed: boolean, allow_voltage_control: boolean, include_best_comparison: boolean): Recommend remedial actions.
- apply_remedial_action(action_index: integer*, confirmed: boolean): Apply one remedial action by index.
- get_status((none)): Get current network status.
- generate_plot(plot_type: string in {voltage_heatmap, flow_diagram, violation_overview, comparison}*): Generate one plot.
- set_active_load(bus_id: integer*, p_mw: number*): Set a bus's active load (MW) and recompute. Use this when the request states only an active-power value. This tool has no reactive-power argument: the bus's present reactive load is always left unchanged. If the request also states a reactive-power value, use set_load instead.
- set_load(bus_id: integer*, p_mw: number*, q_mvar: number*): Set a bus's active and reactive load (MW, Mvar) and recompute. Use this only when the request states both values. If the request states only an active-power value, use set_active_load instead -- do not invent a reactive-power value here to fill this in.

## Output Requirements
Return only this JSON object, nothing else:

{"formulation": [{"tool": "load_case", "args": {"case_name": "<case>"}}, {"tool": "run_powerflow", "args": {}}, ...]}

Do not compute or report any voltage, power, or loading value.

[assistant]
1. The request refers to the following buses: 
   - All buses (1 to 14) are in service.
   - Bus 1 is the slack bus (external grid).
   - Load buses are 2, 3, 4, 5, 6, 9, 10, 11, 12, 13, and 14.
   - Generator buses are 2, 3, 6, and 8.

2. The lines involved in the request are:
   - Disconnect the line between bus 6 and bus 13 (from_bus 6 to_bus 13).
   - Disconnect the line between bus 12 and bus 13 (from_bus 12 to_bus 13).

3. The quantities and units asked for are:
   - Loading percentage (% loading) for each line.

4. The changes with respect to the base case involve disconnecting two lines, which may affect the power flow. The power balance must hold for the remaining connected components of the network.

```json
{"formulation":[{"tool":"load_case","args":{"case_name":"case14"}},{"tool":"disconnect_line","args":{"from_bus":6,"to_bus":13}},{"tool":"disconnect_line","args":{"from_bus":12,"to_bus":13}},{"tool":"run_powerflow","args":{}},{"tool":"get_most_loaded_branch","args":{}}]}
